1
Lattice="30 0.0 0.0 0.0 30 0.0 0.0 0.0 30" Properties=species:S:1:pos
X	0.0	0.0	0.0
1
Lattice="30 0.0 0.0 0.0 30 0.0 0.0 0.0 30" Properties=species:S:1:pos
X       10.0     0.0     0.0
1
Lattice="30 0.0 0.0 0.0 30 0.0 0.0 0.0 30" Properties=species:S:1:pos
X       20.0     0.0     0.0
1
Lattice="30 0.0 0.0 0.0 30 0.0 0.0 0.0 30" Properties=species:S:1:pos
X       28.0     0.0     0.0
1
Lattice="30 0.0 0.0 0.0 30 0.0 0.0 0.0 30" Properties=species:S:1:pos
X       2.0     0.0     0.0
1
Lattice="30 0.0 0.0 0.0 30 0.0 0.0 0.0 30" Properties=species:S:1:pos
X       29.0     0.0     0.0
1
Lattice="30 0.0 0.0 0.0 30 0.0 0.0 0.0 30" Properties=species:S:1:pos
X       3.0     0.0     0.0
1
Lattice="30 0.0 0.0 0.0 30 0.0 0.0 0.0 30" Properties=species:S:1:pos
X       10.0     0.0     0.0


